5
 energy: -4.175218496669 gnorm: 0.000116913703 xtb: 6.2.3 (830e466)
C         0.00001458421778   -0.00000847039267   -0.00007319140625
H        -0.57089308228649   -0.18631779032477    0.90024000435945
H         0.44915993211885    0.98310342795018    0.05463722999341
H        -0.65552106266581   -0.04991511944893   -0.85979053048908
H         0.77743962861567   -0.74686204778381   -0.09511351245754
